&NAMDYNA
  LPC_FULL=.TRUE.,
  LPC_CHEAP=.FALSE.,
/
&NAMGFL
 YI_NL%LADV=.FALSE.,
 YL_NL%LADV=.FALSE.,
 YR_NL%LADV=.FALSE.,
 YS_NL%LADV=.FALSE.,
/
