&NAMDYNA
  LNHEE_REFINE_SILAPL=.TRUE.,
  LSI_NHEE=.TRUE.,
/
