&NAMDYN
  RSLOPE_MAX=9.
/
&NAMDYNA
  LNHEE_REFINE_SILAPL=.TRUE.,
  LSI_NHEE=.TRUE.,
/
